N3
  PyMOL2.4          3D                             0

 49 51  0  0  0  0  0  0  0  0999 V2000
  -10.0480    3.7550   74.5750 O   0  0  0  0  0  0  0  0  0  0  0  0
  -10.5850    4.8610   74.1140 N   0  0  0  0  0  0  0  0  0  0  0  0
  -10.8480    4.7380   72.8100 C   0  0  0  0  0  0  0  0  0  0  0  0
  -10.4250    3.4200   72.4470 C   0  0  0  0  0  0  0  0  0  0  0  0
   -9.9240    2.8570   73.6420 C   0  0  0  0  0  0  0  0  0  0  0  0
   -9.3450    1.4580   73.8060 C   0  0  0  0  0  0  0  0  0  0  0  0
  -11.4750    5.7980   71.8910 C   0  0  0  0  0  0  0  0  0  0  0  0
  -11.0620    5.9430   70.7930 O   0  0  0  0  0  0  0  0  0  0  0  0
  -12.5830    6.6250   72.3740 N   0  0  0  0  0  0  0  0  0  0  0  0
  -13.1660    7.6250   71.4950 C   0  0  0  0  0  0  0  0  0  0  0  0
  -12.1150    8.7500   71.2410 C   0  0  0  0  0  0  0  0  0  0  0  0
  -11.4660    9.1590   72.1250 O   0  0  0  0  0  0  0  0  0  0  0  0
  -14.3970    8.2180   72.1320 C   0  0  0  0  0  0  0  0  0  0  0  0
  -11.9430    9.2810   69.9110 N   0  0  0  0  0  0  0  0  0  0  0  0
  -10.9550   10.3360   69.6660 C   0  0  0  0  0  0  0  0  0  0  0  0
  -11.6630   11.6060   69.2730 C   0  0  0  0  0  0  0  0  0  0  0  0
  -12.3810   11.6170   68.3280 O   0  0  0  0  0  0  0  0  0  0  0  0
  -10.0040    9.8950   68.5150 C   0  0  0  0  0  0  0  0  0  0  0  0
   -9.1300   11.0860   68.0120 C   0  0  0  0  0  0  0  0  0  0  0  0
   -9.1160    8.6870   68.9550 C   0  0  0  0  0  0  0  0  0  0  0  0
  -11.4520   12.8590   70.0850 N   0  0  0  0  0  0  0  0  0  0  0  0
  -12.1240   14.0960   69.7160 C   0  0  0  0  0  0  0  0  0  0  0  0
  -11.5820   14.5610   68.3340 C   0  0  0  0  0  0  0  0  0  0  0  0
  -10.4110   14.5700   68.1310 O   0  0  0  0  0  0  0  0  0  0  0  0
  -11.8250   15.1550   70.7650 C   0  0  0  0  0  0  0  0  0  0  0  0
  -13.0010   15.3970   71.7640 C   0  0  0  0  0  0  0  0  0  0  0  0
  -13.8340   14.1000   72.0190 C   0  0  0  0  0  0  0  0  0  0  0  0
  -12.4870   15.9820   73.0820 C   0  0  0  0  0  0  0  0  0  0  0  0
  -12.5240   14.9870   67.2600 N   0  0  0  0  0  0  0  0  0  0  0  0
  -11.2380   11.5710   63.2750 N   0  0  0  0  0  0  0  0  0  0  0  0
  -10.3540   17.7310   67.4510 O   0  0  0  0  0  0  0  0  0  0  0  0
  -13.4400   12.7300   63.4910 O   0  0  0  0  0  0  0  0  0  0  0  0
  -11.9930   15.4250   65.9510 C   0  0  0  0  0  0  0  0  0  0  0  0
  -12.4990   16.8170   65.6470 C   0  0  0  0  0  0  0  0  0  0  0  0
  -11.3650   17.8020   65.2890 C   0  0  0  0  0  0  0  0  0  0  0  0
  -10.1670   17.7640   66.2780 C   0  0  0  0  0  0  0  0  0  0  0  0
  -12.4560   14.4640   64.8580 C   0  0  0  0  0  0  0  0  0  0  0  0
  -11.8270   13.0030   65.0480 C   0  0  0  0  0  0  0  0  0  0  0  0
  -10.2150   13.0410   64.7250 C   0  0  0  0  0  0  0  0  0  0  0  0
   -9.9250   12.0610   63.8360 C   0  0  0  0  0  0  0  0  0  0  0  0
  -12.3830   12.1480   64.2560 C   0  0  0  0  0  0  0  0  0  0  0  0
   -7.8300   17.5820   66.7590 C   0  0  0  0  0  0  0  0  0  0  0  0
   -8.8400   17.7820   65.7660 O   0  0  0  0  0  0  0  0  0  0  0  0
   -5.7390   18.9300   67.3220 C   0  0  0  0  0  0  0  0  0  0  0  0
   -5.0670   20.1380   67.5020 C   0  0  0  0  0  0  0  0  0  0  0  0
   -5.7440   21.3470   67.3200 C   0  0  0  0  0  0  0  0  0  0  0  0
   -7.0850   21.3390   66.9610 C   0  0  0  0  0  0  0  0  0  0  0  0
   -7.7600   20.1340   66.7780 C   0  0  0  0  0  0  0  0  0  0  0  0
   -7.0820   18.9270   66.9590 C   0  0  0  0  0  0  0  0  0  0  0  0
  1  2  4  0  0  0  0
  2  3  4  0  0  0  0
  3  7  1  0  0  0  0
  3  4  4  0  0  0  0
  4  5  4  0  0  0  0
  1  5  4  0  0  0  0
  5  6  1  0  0  0  0
  7  8  2  0  0  0  0
  7  9  1  0  0  0  0
  9 10  1  0  0  0  0
 10 11  1  0  0  0  0
 10 13  1  0  0  0  0
 11 12  2  0  0  0  0
 11 14  1  0  0  0  0
 14 15  1  0  0  0  0
 15 16  1  0  0  0  0
 15 18  1  0  0  0  0
 16 17  2  0  0  0  0
 16 21  1  0  0  0  0
 18 19  1  0  0  0  0
 18 20  1  0  0  0  0
 21 22  1  0  0  0  0
 22 23  1  0  0  0  0
 22 25  1  0  0  0  0
 23 24  2  0  0  0  0
 23 29  1  0  0  0  0
 25 26  1  0  0  0  0
 26 27  1  0  0  0  0
 26 28  1  0  0  0  0
 30 41  1  0  0  0  0
 29 33  1  0  0  0  0
 33 34  1  0  0  0  0
 33 37  1  0  0  0  0
 34 35  1  0  0  0  0
 35 36  1  0  0  0  0
 31 36  2  0  0  0  0
 36 43  1  0  0  0  0
 37 38  1  0  0  0  0
 38 39  1  0  0  0  0
 38 41  1  0  0  0  0
 39 40  1  0  0  0  0
 30 40  1  0  0  0  0
 32 41  1  0  0  0  0
 42 43  1  0  0  0  0
 42 49  1  0  0  0  0
 44 45  4  0  0  0  0
 44 49  4  0  0  0  0
 45 46  4  0  0  0  0
 46 47  4  0  0  0  0
 47 48  4  0  0  0  0
 48 49  4  0  0  0  0
M  END
$$$$
